LIG
  Mrv15b2309162620542D          

 18 21  0  0  0  0            999 V2000
    1.0109   -0.9140    0.0000 N   0  0  0  0  0  0  0  0  0  0  0  0
    0.3340   -1.3856    0.0000 N   0  0  0  0  0  0  0  0  0  0  0  0
   -0.3238   -0.8876    0.0000 C   0  0  0  0  0  0  0  0  0  0  0  0
   -0.0534   -0.1082    0.0000 C   0  0  0  0  0  0  0  0  0  0  0  0
    0.7714   -0.1245    0.0000 C   0  0  0  0  0  0  0  0  0  0  0  0
    1.2694    0.5333    0.0000 C   0  0  0  0  0  0  0  0  0  0  0  0
    0.9488    1.2934    0.0000 C   0  0  0  0  0  0  0  0  0  0  0  0
    1.4468    1.9512    0.0000 C   0  0  0  0  0  0  0  0  0  0  0  0
    2.2654    1.8488    0.0000 N   0  0  0  0  0  0  0  0  0  0  0  0
    2.5860    1.0886    0.0000 C   0  0  0  0  0  0  0  0  0  0  0  0
    2.0880    0.4309    0.0000 C   0  0  0  0  0  0  0  0  0  0  0  0
   -0.7112    0.3898    0.0000 C   0  0  0  0  0  0  0  0  0  0  0  0
   -1.3880   -0.0819    0.0000 C   0  0  0  0  0  0  0  0  0  0  0  0
   -1.1486   -0.8714    0.0000 C   0  0  0  0  0  0  0  0  0  0  0  0
   -1.7126   -1.4735    0.0000 C   0  0  0  0  0  0  0  0  0  0  0  0
   -2.5160   -1.2861    0.0000 C   0  0  0  0  0  0  0  0  0  0  0  0
   -2.7555   -0.4966    0.0000 C   0  0  0  0  0  0  0  0  0  0  0  0
   -2.1915    0.1055    0.0000 C   0  0  0  0  0  0  0  0  0  0  0  0
  1  2  4  0  0  0  0
  1  5  4  0  0  0  0
  2  3  4  0  0  0  0
  3  4  4  0  0  0  0
  3 14  1  0  0  0  0
  4  5  4  0  0  0  0
  4 12  1  0  0  0  0
  5  6  1  0  0  0  0
  6  7  4  0  0  0  0
  6 11  4  0  0  0  0
  7  8  4  0  0  0  0
  8  9  4  0  0  0  0
  9 10  4  0  0  0  0
 10 11  4  0  0  0  0
 12 13  1  0  0  0  0
 13 14  4  0  0  0  0
 13 18  4  0  0  0  0
 14 15  4  0  0  0  0
 15 16  4  0  0  0  0
 16 17  4  0  0  0  0
 17 18  4  0  0  0  0
M  STY  1   1 DAT
M  SAL   1  1   1
M  SDT   1 MRV_IMPLICIT_H                                        
M  SDD   1     0.0000    0.0000    DR    ALL  0       0  
M  SED   1 IMPL_H1
M  END
