fad/complex_hetb.pdb
 OpenBabel09162617373D

 53 58  0  0  1  0  0  0  0  0999 V2000
  -38.1630  -27.7040  -20.5420 P   0  0  1  0  0  0  0  0  0  0  0  0
  -36.7190  -28.0790  -20.5300 O   0  0  0  0  0  0  0  0  0  0  0  0
  -38.8680  -27.8840  -19.3950 O   0  0  0  0  0  0  0  0  0  0  0  0
  -37.9910  -26.2370  -20.7130 O   0  0  0  0  0  0  0  0  0  0  0  0
  -39.0930  -25.3000  -20.8370 C   0  0  0  0  0  0  0  0  0  0  0  0
  -38.5510  -23.9040  -20.4320 C   0  0  1  0  0  0  0  0  0  0  0  0
  -39.7290  -23.0020  -20.5590 O   0  0  0  0  0  0  0  0  0  0  0  0
  -38.0890  -23.7840  -18.9440 C   0  0  1  0  0  0  0  0  0  0  0  0
  -37.0810  -22.8340  -18.7500 O   0  0  0  0  0  0  0  0  0  0  0  0
  -39.4440  -23.5170  -18.2370 C   0  0  1  0  0  0  0  0  0  0  0  0
  -39.2970  -22.9690  -16.9390 O   0  0  0  0  0  0  0  0  0  0  0  0
  -40.1350  -22.5780  -19.2080 C   0  0  2  0  0  0  0  0  0  0  0  0
  -41.6130  -22.6450  -19.2380 N   0  0  0  0  0  0  0  0  0  0  0  0
  -42.4140  -23.7420  -18.9420 C   0  0  0  0  0  0  0  0  0  0  0  0
  -43.7210  -23.4890  -19.0430 N   0  0  0  0  0  0  0  0  0  0  0  0
  -43.7940  -22.1620  -19.4230 C   0  0  0  0  0  0  0  0  0  0  0  0
  -44.9630  -21.2520  -19.6990 C   0  0  0  0  0  0  0  0  0  0  0  0
  -46.2250  -21.6190  -19.6120 N   0  0  0  0  0  0  0  0  0  0  0  0
  -44.6200  -19.9480  -20.0670 N   0  0  0  0  0  0  0  0  0  0  0  0
  -43.2940  -19.5280  -20.1670 C   0  0  0  0  0  0  0  0  0  0  0  0
  -42.1730  -20.2760  -19.9310 N   0  0  0  0  0  0  0  0  0  0  0  0
  -42.4690  -21.5920  -19.5590 C   0  0  0  0  0  0  0  0  0  0  0  0
  -32.5530  -32.1800  -28.4930 N   0  0  0  0  0  0  0  0  0  0  0  0
  -32.1710  -32.0690  -29.7700 C   0  0  0  0  0  0  0  0  0  0  0  0
  -32.0250  -30.9990  -30.3040 O   0  0  0  0  0  0  0  0  0  0  0  0
  -32.0100  -33.2260  -30.6090 N   0  0  0  0  0  0  0  0  0  0  0  0
  -32.1210  -34.5270  -30.1060 C   0  0  0  0  0  0  0  0  0  0  0  0
  -31.9870  -35.4640  -30.8600 O   0  0  0  0  0  0  0  0  0  0  0  0
  -32.3950  -34.6690  -28.6700 C   0  0  0  0  0  0  0  0  0  0  0  0
  -32.5030  -35.9210  -28.1030 N   0  0  0  0  0  0  0  0  0  0  0  0
  -32.9110  -36.0080  -26.7720 C   0  0  0  0  0  0  0  0  0  0  0  0
  -33.0380  -37.3230  -26.1830 C   0  0  0  0  0  0  0  0  0  0  0  0
  -33.4630  -37.4910  -24.8560 C   0  0  0  0  0  0  0  0  0  0  0  0
  -33.5800  -38.8860  -24.2770 C   0  0  0  0  0  0  0  0  0  0  0  0
  -33.7980  -36.3070  -24.0370 C   0  0  0  0  0  0  0  0  0  0  0  0
  -34.2750  -36.4060  -22.6060 C   0  0  0  0  0  0  0  0  0  0  0  0
  -33.6760  -35.0150  -24.6030 C   0  0  0  0  0  0  0  0  0  0  0  0
  -33.2350  -34.8430  -25.9530 C   0  0  2  0  0  0  0  0  0  0  0  0
  -33.0890  -33.5260  -26.6090 N   0  0  0  0  0  0  0  0  0  0  0  0
  -32.6840  -33.4210  -27.9060 C   0  0  0  0  0  0  0  0  0  0  0  0
  -33.4060  -32.3010  -25.8160 C   0  0  0  0  0  0  0  0  0  0  0  0
  -34.9500  -32.0510  -25.8200 C   0  0  2  0  0  0  0  0  0  0  0  0
  -35.3810  -31.8750  -27.1820 O   0  0  0  0  0  0  0  0  0  0  0  0
  -35.2470  -30.8050  -24.9570 C   0  0  2  0  0  0  0  0  0  0  0  0
  -34.7790  -31.0840  -23.6160 O   0  0  0  0  0  0  0  0  0  0  0  0
  -36.7790  -30.5490  -24.9170 C   0  0  2  0  0  0  0  0  0  0  0  0
  -37.2770  -30.2670  -26.2450 O   0  0  0  0  0  0  0  0  0  0  0  0
  -37.0730  -29.3720  -24.0230 C   0  0  0  0  0  0  0  0  0  0  0  0
  -38.6260  -29.2460  -23.9810 O   0  0  0  0  0  0  0  0  0  0  0  0
  -39.3340  -29.3080  -22.6350 P   0  0  1  0  0  0  0  0  0  0  0  0
  -40.8320  -29.2230  -22.8880 O   0  0  0  0  0  0  0  0  0  0  0  0
  -38.8530  -30.3630  -21.8530 O   0  0  0  0  0  0  0  0  0  0  0  0
  -38.9770  -28.1230  -21.8870 O   0  0  0  0  0  0  0  0  0  0  0  0
  1  2  2  1  0  0  0
  1  3  1  0  0  0  0
  4  1  1  0  0  0  0
  5  4  1  0  0  0  0
  6  5  1  1  0  0  0
  6  8  1  0  0  0  0
  7  6  1  0  0  0  0
  7 12  1  0  0  0  0
  8  9  1  6  0  0  0
  8 10  1  0  0  0  0
 10 11  1  1  0  0  0
 12 13  1  6  0  0  0
 12 10  1  0  0  0  0
 13 14  1  0  0  0  0
 15 14  2  0  0  0  0
 16 15  1  0  0  0  0
 17 18  1  0  0  0  0
 17 16  2  0  0  0  0
 19 17  1  0  0  0  0
 20 19  2  0  0  0  0
 20 21  1  0  0  0  0
 21 22  2  0  0  0  0
 22 16  1  0  0  0  0
 22 13  1  0  0  0  0
 23 40  1  0  0  0  0
 24 23  2  0  0  0  0
 25 24  2  0  0  0  0
 26 27  1  0  0  0  0
 26 24  1  0  0  0  0
 27 29  1  0  0  0  0
 28 27  2  0  0  0  0
 29 30  1  0  0  0  0
 29 40  2  0  0  0  0
 30 31  2  0  0  0  0
 31 32  1  0  0  0  0
 31 38  1  0  0  0  0
 32 33  2  0  0  0  0
 33 34  1  0  0  0  0
 33 35  1  0  0  0  0
 35 36  1  0  0  0  0
 37 35  2  0  0  0  0
 38 37  1  6  0  0  0
 39 38  1  0  0  0  0
 39 41  1  0  0  0  0
 40 39  1  0  0  0  0
 42 43  1  6  0  0  0
 42 41  1  0  0  0  0
 42 44  1  0  0  0  0
 44 46  1  0  0  0  0
 44 45  1  1  0  0  0
 46 47  1  6  0  0  0
 46 48  1  0  0  0  0
 48 49  1  0  0  0  0
 49 50  1  0  0  0  0
 50 51  2  6  0  0  0
 50 53  1  0  0  0  0
 50 52  1  0  0  0  0
 53  1  1  0  0  0  0
M  END
