fad/complex_heta.pdb
 OpenBabel09162617373D

 86 91  0  0  1  0  0  0  0  0999 V2000
   17.8670  -11.4260   -5.6630 P   0  0  1  0  0  0  0  0  0  0  0  0
   19.0010  -11.2470   -4.7310 O   0  0  0  0  0  0  0  0  0  0  0  0
   18.0530  -11.0780   -6.9610 O   0  0  0  0  0  0  0  0  0  0  0  0
   17.7930  -12.8800   -5.6240 O   0  0  0  0  0  0  0  0  0  0  0  0
   16.8240  -13.6580   -6.3370 C   0  0  0  0  0  0  0  0  0  0  0  0
   17.2170  -15.1420   -6.0860 C   0  0  1  0  0  0  0  0  0  0  0  0
   16.2130  -15.9230   -6.8750 O   0  0  0  0  0  0  0  0  0  0  0  0
   18.5960  -15.5620   -6.6750 C   0  0  1  0  0  0  0  0  0  0  0  0
   19.1250  -16.7050   -6.0740 O   0  0  0  0  0  0  0  0  0  0  0  0
   18.2150  -15.6600   -8.1690 C   0  0  1  0  0  0  0  0  0  0  0  0
   19.1840  -16.3160   -8.9580 O   0  0  0  0  0  0  0  0  0  0  0  0
   16.8860  -16.3920   -8.0980 C   0  0  2  0  0  0  0  0  0  0  0  0
   15.9210  -16.1020   -9.1790 N   0  0  0  0  0  0  0  0  0  0  0  0
   15.8200  -14.9470   -9.9330 C   0  0  0  0  0  0  0  0  0  0  0  0
   14.8570  -15.0020  -10.8520 N   0  0  0  0  0  0  0  0  0  0  0  0
   14.2960  -16.2490  -10.7020 C   0  0  0  0  0  0  0  0  0  0  0  0
   13.1760  -16.9500  -11.4240 C   0  0  0  0  0  0  0  0  0  0  0  0
   12.4900  -16.4320  -12.4190 N   0  0  0  0  0  0  0  0  0  0  0  0
   12.8970  -18.2370  -10.9630 N   0  0  0  0  0  0  0  0  0  0  0  0
   13.6000  -18.8180   -9.9200 C   0  0  0  0  0  0  0  0  0  0  0  0
   14.6280  -18.2630   -9.2140 N   0  0  0  0  0  0  0  0  0  0  0  0
   14.9440  -16.9750   -9.6400 C   0  0  0  0  0  0  0  0  0  0  0  0
   16.2530   -7.3600    4.3090 N   0  0  0  0  0  0  0  0  0  0  0  0
   15.5810   -7.4140    5.4660 C   0  0  0  0  0  0  0  0  0  0  0  0
   15.1120   -8.4400    5.8980 O   0  0  0  0  0  0  0  0  0  0  0  0
   15.3190   -6.2260    6.2280 N   0  0  0  0  0  0  0  0  0  0  0  0
   15.8190   -4.9710    5.8470 C   0  0  0  0  0  0  0  0  0  0  0  0
   15.5630   -3.9930    6.5200 O   0  0  0  0  0  0  0  0  0  0  0  0
   16.6320   -4.9120    4.6420 C   0  0  0  0  0  0  0  0  0  0  0  0
   17.1500   -3.7070    4.2250 N   0  0  0  0  0  0  0  0  0  0  0  0
   17.8230   -3.6650    3.0230 C   0  0  0  0  0  0  0  0  0  0  0  0
   18.3440   -2.3970    2.5920 C   0  0  0  0  0  0  0  0  0  0  0  0
   19.0180   -2.2650    1.3740 C   0  0  0  0  0  0  0  0  0  0  0  0
   19.5450   -0.9150    0.9550 C   0  0  0  0  0  0  0  0  0  0  0  0
   19.2060   -3.4380    0.5030 C   0  0  0  0  0  0  0  0  0  0  0  0
   19.9140   -3.3600   -0.8300 C   0  0  0  0  0  0  0  0  0  0  0  0
   18.7020   -4.7010    0.9180 C   0  0  0  0  0  0  0  0  0  0  0  0
   18.0130   -4.8330    2.1690 C   0  0  2  0  0  0  0  0  0  0  0  0
   17.4460   -6.1120    2.6730 N   0  0  0  0  0  0  0  0  0  0  0  0
   16.7810   -6.1670    3.8560 C   0  0  0  0  0  0  0  0  0  0  0  0
   17.6120   -7.3380    1.8360 C   0  0  0  0  0  0  0  0  0  0  0  0
   16.5220   -7.3920    0.7140 C   0  0  2  0  0  0  0  0  0  0  0  0
   15.2200   -7.4360    1.3390 O   0  0  0  0  0  0  0  0  0  0  0  0
   16.7880   -8.6410   -0.1460 C   0  0  2  0  0  0  0  0  0  0  0  0
   18.1000   -8.4950   -0.7110 O   0  0  0  0  0  0  0  0  0  0  0  0
   15.7780   -8.7330   -1.3050 C   0  0  2  0  0  0  0  0  0  0  0  0
   14.4520   -8.8780   -0.7950 O   0  0  0  0  0  0  0  0  0  0  0  0
   16.1230   -9.9240   -2.1490 C   0  0  0  0  0  0  0  0  0  0  0  0
   15.1400   -9.9300   -3.3570 O   0  0  0  0  0  0  0  0  0  0  0  0
   15.7060   -9.8220   -4.7830 P   0  0  1  0  0  0  0  0  0  0  0  0
   14.5400   -9.8130   -5.7570 O   0  0  0  0  0  0  0  0  0  0  0  0
   16.6750   -8.8190   -4.8990 O   0  0  0  0  0  0  0  0  0  0  0  0
   16.4480  -11.0160   -5.0440 O   0  0  0  0  0  0  0  0  0  0  0  0
   19.8246  -11.5129   -5.1690 H   0  0  0  0  0  0  0  0  0  0  0  0
   15.8402  -13.4634   -5.9639 H   0  0  0  0  0  0  0  0  0  0  0  0
   16.8141  -13.4208   -7.3803 H   0  0  0  0  0  0  0  0  0  0  0  0
   17.2545  -15.3031   -5.0289 H   0  0  0  0  0  0  0  0  0  0  0  0
   19.4152  -14.8955   -6.5030 H   0  0  0  0  0  0  0  0  0  0  0  0
   18.4865  -17.4319   -6.1435 H   0  0  0  0  0  0  0  0  0  0  0  0
   18.1524  -14.7103   -8.6579 H   0  0  0  0  0  0  0  0  0  0  0  0
   19.3342  -17.2087   -8.6096 H   0  0  0  0  0  0  0  0  0  0  0  0
   17.1313  -17.4321   -8.1525 H   0  0  0  0  0  0  0  0  0  0  0  0
   16.4293  -14.1252   -9.7974 H   0  0  0  0  0  0  0  0  0  0  0  0
   11.7695  -16.9517  -12.8433 H   0  0  0  0  0  0  0  0  0  0  0  0
   12.6969  -15.5245  -12.7397 H   0  0  0  0  0  0  0  0  0  0  0  0
   13.3161  -19.7721   -9.6478 H   0  0  0  0  0  0  0  0  0  0  0  0
   14.7715   -6.2936    7.0434 H   0  0  0  0  0  0  0  0  0  0  0  0
   18.2183   -1.5676    3.1931 H   0  0  0  0  0  0  0  0  0  0  0  0
   20.0285   -1.0003    0.0043 H   0  0  0  0  0  0  0  0  0  0  0  0
   20.2475   -0.5649    1.6823 H   0  0  0  0  0  0  0  0  0  0  0  0
   18.7328   -0.2223    0.8813 H   0  0  0  0  0  0  0  0  0  0  0  0
   19.9307   -4.3296   -1.2822 H   0  0  0  0  0  0  0  0  0  0  0  0
   20.9171   -3.0183   -0.6816 H   0  0  0  0  0  0  0  0  0  0  0  0
   19.3955   -2.6769   -1.4698 H   0  0  0  0  0  0  0  0  0  0  0  0
   18.8328   -5.5283    0.3151 H   0  0  0  0  0  0  0  0  0  0  0  0
   18.5817   -7.3262    1.3837 H   0  0  0  0  0  0  0  0  0  0  0  0
   17.5054   -8.1994    2.4617 H   0  0  0  0  0  0  0  0  0  0  0  0
   16.5561   -6.5290    0.0824 H   0  0  0  0  0  0  0  0  0  0  0  0
   15.1654   -8.2123    1.9181 H   0  0  0  0  0  0  0  0  0  0  0  0
   16.7004   -9.5193    0.4588 H   0  0  0  0  0  0  0  0  0  0  0  0
   18.1324   -7.6886   -1.2491 H   0  0  0  0  0  0  0  0  0  0  0  0
   15.8237   -7.8385   -1.8904 H   0  0  0  0  0  0  0  0  0  0  0  0
   14.3973   -9.6864   -0.2617 H   0  0  0  0  0  0  0  0  0  0  0  0
   17.1318   -9.8472   -2.4972 H   0  0  0  0  0  0  0  0  0  0  0  0
   16.0373  -10.8286   -1.5840 H   0  0  0  0  0  0  0  0  0  0  0  0
   17.0013   -8.7887   -5.8120 H   0  0  0  0  0  0  0  0  0  0  0  0
  1  3  2  6  0  0  0
  1  4  1  0  0  0  0
  1 53  1  0  0  0  0
  1  2  1  0  0  0  0
  2 54  1  0  0  0  0
  5  6  1  0  0  0  0
  5  4  1  0  0  0  0
  5 55  1  0  0  0  0
  5 56  1  0  0  0  0
  6  8  1  6  0  0  0
  6 57  1  0  0  0  0
  7  6  1  0  0  0  0
  8 10  1  6  0  0  0
  8  9  1  0  0  0  0
  8 58  1  0  0  0  0
  9 59  1  0  0  0  0
 10 12  1  6  0  0  0
 10 60  1  0  0  0  0
 11 10  1  0  0  0  0
 11 61  1  0  0  0  0
 12  7  1  0  0  0  0
 12 62  1  1  0  0  0
 13 12  1  0  0  0  0
 14 13  1  0  0  0  0
 14 63  1  0  0  0  0
 15 16  1  0  0  0  0
 15 14  2  0  0  0  0
 16 22  2  0  0  0  0
 17 19  2  0  0  0  0
 17 16  1  0  0  0  0
 18 17  1  0  0  0  0
 18 64  1  0  0  0  0
 18 65  1  0  0  0  0
 19 20  1  0  0  0  0
 20 21  2  0  0  0  0
 20 66  1  0  0  0  0
 22 21  1  0  0  0  0
 22 13  1  0  0  0  0
 23 24  2  0  0  0  0
 24 25  2  0  0  0  0
 24 26  1  0  0  0  0
 26 67  1  0  0  0  0
 27 26  1  0  0  0  0
 27 28  2  0  0  0  0
 29 27  1  0  0  0  0
 30 29  1  0  0  0  0
 31 30  2  0  0  0  0
 32 31  1  0  0  0  0
 32 68  1  0  0  0  0
 33 32  2  0  0  0  0
 34 33  1  0  0  0  0
 34 69  1  0  0  0  0
 34 70  1  0  0  0  0
 34 71  1  0  0  0  0
 35 37  2  0  0  0  0
 35 33  1  0  0  0  0
 36 35  1  0  0  0  0
 36 72  1  0  0  0  0
 36 73  1  0  0  0  0
 36 74  1  0  0  0  0
 37 75  1  0  0  0  0
 38 37  1  6  0  0  0
 38 39  1  0  0  0  0
 38 31  1  0  0  0  0
 39 40  1  0  0  0  0
 40 23  1  0  0  0  0
 40 29  2  0  0  0  0
 41 39  1  0  0  0  0
 41 76  1  0  0  0  0
 41 77  1  0  0  0  0
 42 43  1  0  0  0  0
 42 41  1  0  0  0  0
 42 78  1  6  0  0  0
 43 79  1  0  0  0  0
 44 42  1  0  0  0  0
 44 80  1  1  0  0  0
 45 44  1  0  0  0  0
 45 81  1  0  0  0  0
 46 47  1  0  0  0  0
 46 44  1  0  0  0  0
 46 82  1  6  0  0  0
 47 83  1  0  0  0  0
 48 46  1  0  0  0  0
 48 84  1  0  0  0  0
 48 85  1  0  0  0  0
 49 48  1  0  0  0  0
 50 51  2  6  0  0  0
 50 49  1  0  0  0  0
 52 50  1  0  0  0  0
 52 86  1  0  0  0  0
 53 50  1  0  0  0  0
M  END
