fad/complex_heta.pdb
 OpenBabel09162617373D

 53 58  0  0  1  0  0  0  0  0999 V2000
   17.8670  -11.4260   -5.6630 P   0  0  1  0  0  0  0  0  0  0  0  0
   19.0010  -11.2470   -4.7310 O   0  0  0  0  0  0  0  0  0  0  0  0
   18.0530  -11.0780   -6.9610 O   0  0  0  0  0  0  0  0  0  0  0  0
   17.7930  -12.8800   -5.6240 O   0  0  0  0  0  0  0  0  0  0  0  0
   16.8240  -13.6580   -6.3370 C   0  0  0  0  0  0  0  0  0  0  0  0
   17.2170  -15.1420   -6.0860 C   0  0  1  0  0  0  0  0  0  0  0  0
   16.2130  -15.9230   -6.8750 O   0  0  0  0  0  0  0  0  0  0  0  0
   18.5960  -15.5620   -6.6750 C   0  0  1  0  0  0  0  0  0  0  0  0
   19.1250  -16.7050   -6.0740 O   0  0  0  0  0  0  0  0  0  0  0  0
   18.2150  -15.6600   -8.1690 C   0  0  1  0  0  0  0  0  0  0  0  0
   19.1840  -16.3160   -8.9580 O   0  0  0  0  0  0  0  0  0  0  0  0
   16.8860  -16.3920   -8.0980 C   0  0  2  0  0  0  0  0  0  0  0  0
   15.9210  -16.1020   -9.1790 N   0  0  0  0  0  0  0  0  0  0  0  0
   15.8200  -14.9470   -9.9330 C   0  0  0  0  0  0  0  0  0  0  0  0
   14.8570  -15.0020  -10.8520 N   0  0  0  0  0  0  0  0  0  0  0  0
   14.2960  -16.2490  -10.7020 C   0  0  0  0  0  0  0  0  0  0  0  0
   13.1760  -16.9500  -11.4240 C   0  0  0  0  0  0  0  0  0  0  0  0
   12.4900  -16.4320  -12.4190 N   0  0  0  0  0  0  0  0  0  0  0  0
   12.8970  -18.2370  -10.9630 N   0  0  0  0  0  0  0  0  0  0  0  0
   13.6000  -18.8180   -9.9200 C   0  0  0  0  0  0  0  0  0  0  0  0
   14.6280  -18.2630   -9.2140 N   0  0  0  0  0  0  0  0  0  0  0  0
   14.9440  -16.9750   -9.6400 C   0  0  0  0  0  0  0  0  0  0  0  0
   16.2530   -7.3600    4.3090 N   0  0  0  0  0  0  0  0  0  0  0  0
   15.5810   -7.4140    5.4660 C   0  0  0  0  0  0  0  0  0  0  0  0
   15.1120   -8.4400    5.8980 O   0  0  0  0  0  0  0  0  0  0  0  0
   15.3190   -6.2260    6.2280 N   0  0  0  0  0  0  0  0  0  0  0  0
   15.8190   -4.9710    5.8470 C   0  0  0  0  0  0  0  0  0  0  0  0
   15.5630   -3.9930    6.5200 O   0  0  0  0  0  0  0  0  0  0  0  0
   16.6320   -4.9120    4.6420 C   0  0  0  0  0  0  0  0  0  0  0  0
   17.1500   -3.7070    4.2250 N   0  0  0  0  0  0  0  0  0  0  0  0
   17.8230   -3.6650    3.0230 C   0  0  0  0  0  0  0  0  0  0  0  0
   18.3440   -2.3970    2.5920 C   0  0  0  0  0  0  0  0  0  0  0  0
   19.0180   -2.2650    1.3740 C   0  0  0  0  0  0  0  0  0  0  0  0
   19.5450   -0.9150    0.9550 C   0  0  0  0  0  0  0  0  0  0  0  0
   19.2060   -3.4380    0.5030 C   0  0  0  0  0  0  0  0  0  0  0  0
   19.9140   -3.3600   -0.8300 C   0  0  0  0  0  0  0  0  0  0  0  0
   18.7020   -4.7010    0.9180 C   0  0  0  0  0  0  0  0  0  0  0  0
   18.0130   -4.8330    2.1690 C   0  0  2  0  0  0  0  0  0  0  0  0
   17.4460   -6.1120    2.6730 N   0  0  0  0  0  0  0  0  0  0  0  0
   16.7810   -6.1670    3.8560 C   0  0  0  0  0  0  0  0  0  0  0  0
   17.6120   -7.3380    1.8360 C   0  0  0  0  0  0  0  0  0  0  0  0
   16.5220   -7.3920    0.7140 C   0  0  2  0  0  0  0  0  0  0  0  0
   15.2200   -7.4360    1.3390 O   0  0  0  0  0  0  0  0  0  0  0  0
   16.7880   -8.6410   -0.1460 C   0  0  2  0  0  0  0  0  0  0  0  0
   18.1000   -8.4950   -0.7110 O   0  0  0  0  0  0  0  0  0  0  0  0
   15.7780   -8.7330   -1.3050 C   0  0  2  0  0  0  0  0  0  0  0  0
   14.4520   -8.8780   -0.7950 O   0  0  0  0  0  0  0  0  0  0  0  0
   16.1230   -9.9240   -2.1490 C   0  0  0  0  0  0  0  0  0  0  0  0
   15.1400   -9.9300   -3.3570 O   0  0  0  0  0  0  0  0  0  0  0  0
   15.7060   -9.8220   -4.7830 P   0  0  1  0  0  0  0  0  0  0  0  0
   14.5400   -9.8130   -5.7570 O   0  0  0  0  0  0  0  0  0  0  0  0
   16.6750   -8.8190   -4.8990 O   0  0  0  0  0  0  0  0  0  0  0  0
   16.4480  -11.0160   -5.0440 O   0  0  0  0  0  0  0  0  0  0  0  0
  1  3  2  6  0  0  0
  1  4  1  0  0  0  0
  1 53  1  0  0  0  0
  1  2  1  0  0  0  0
  5  4  1  0  0  0  0
  6  5  1  6  0  0  0
  7  6  1  0  0  0  0
  8  6  1  0  0  0  0
  8  9  1  1  0  0  0
 10 11  1  6  0  0  0
 10 12  1  0  0  0  0
 10  8  1  0  0  0  0
 12 13  1  6  0  0  0
 12  7  1  0  0  0  0
 14 13  1  0  0  0  0
 15 16  1  0  0  0  0
 15 14  2  0  0  0  0
 16 22  2  0  0  0  0
 17 19  2  0  0  0  0
 17 16  1  0  0  0  0
 18 17  1  0  0  0  0
 19 20  1  0  0  0  0
 20 21  2  0  0  0  0
 22 21  1  0  0  0  0
 22 13  1  0  0  0  0
 23 24  2  0  0  0  0
 24 25  2  0  0  0  0
 24 26  1  0  0  0  0
 27 26  1  0  0  0  0
 27 28  2  0  0  0  0
 29 27  1  0  0  0  0
 30 29  1  0  0  0  0
 31 30  2  0  0  0  0
 32 31  1  0  0  0  0
 33 32  2  0  0  0  0
 34 33  1  0  0  0  0
 35 37  2  0  0  0  0
 35 33  1  0  0  0  0
 36 35  1  0  0  0  0
 38 37  1  6  0  0  0
 38 39  1  0  0  0  0
 38 31  1  0  0  0  0
 39 40  1  0  0  0  0
 40 23  1  0  0  0  0
 40 29  2  0  0  0  0
 41 39  1  0  0  0  0
 42 43  1  1  0  0  0
 42 41  1  0  0  0  0
 44 45  1  6  0  0  0
 44 42  1  0  0  0  0
 46 47  1  1  0  0  0
 46 44  1  0  0  0  0
 48 46  1  0  0  0  0
 49 48  1  0  0  0  0
 50 51  2  6  0  0  0
 50 49  1  0  0  0  0
 52 50  1  0  0  0  0
 53 50  1  0  0  0  0
M  END
