FAD
 OpenBabel09162617372D

 86 91  0  0  1  0  0  0  0  0999 V2000
    0.0000   -0.9785    0.0000 P   0  0  1  0  0  0  0  0  0  0  0  0
    0.9785   -0.9785    0.0000 O   0  0  0  0  0  0  0  0  0  0  0  0
   -0.0000   -1.9570    0.0000 O   0  0  0  0  0  0  0  0  0  0  0  0
   -0.9785   -0.9785    0.0000 O   0  0  0  0  0  0  0  0  0  0  0  0
   -1.4677   -1.8259    0.0000 C   0  0  0  0  0  0  0  0  0  0  0  0
   -3.4247   -1.8259    0.0000 C   0  0  1  0  0  0  0  0  0  0  0  0
   -4.3912   -1.9790    0.0000 O   0  0  0  0  0  0  0  0  0  0  0  0
   -3.2717   -0.8594    0.0000 C   0  0  1  0  0  0  0  0  0  0  0  0
   -2.2945   -0.9107    0.0000 O   0  0  0  0  0  0  0  0  0  0  0  0
   -4.1435   -0.4152    0.0000 C   0  0  1  0  0  0  0  0  0  0  0  0
   -3.7928    0.4983    0.0000 O   0  0  0  0  0  0  0  0  0  0  0  0
   -4.8354   -1.1071    0.0000 C   0  0  2  0  0  0  0  0  0  0  0  0
   -5.5958   -0.4913    0.0000 N   0  0  0  0  0  0  0  0  0  0  0  0
   -6.5410   -0.7446    0.0000 C   0  0  0  0  0  0  0  0  0  0  0  0
   -7.0739    0.0760    0.0000 N   0  0  0  0  0  0  0  0  0  0  0  0
   -6.4581    0.8365    0.0000 C   0  0  0  0  0  0  0  0  0  0  0  0
   -6.6112    1.8029    0.0000 C   0  0  0  0  0  0  0  0  0  0  0  0
   -7.5247    2.1536    0.0000 N   0  0  0  0  0  0  0  0  0  0  0  0
   -5.8508    2.4187    0.0000 N   0  0  0  0  0  0  0  0  0  0  0  0
   -4.9373    2.0681    0.0000 C   0  0  0  0  0  0  0  0  0  0  0  0
   -4.7842    1.1016    0.0000 N   0  0  0  0  0  0  0  0  0  0  0  0
   -5.5446    0.4858    0.0000 C   0  0  0  0  0  0  0  0  0  0  0  0
    6.0980    0.8474    0.0000 N   0  0  0  0  0  0  0  0  0  0  0  0
    6.9454    1.3366    0.0000 C   0  0  0  0  0  0  0  0  0  0  0  0
    6.9454    2.3151    0.0000 O   0  0  0  0  0  0  0  0  0  0  0  0
    7.7928    0.8474    0.0000 N   0  0  0  0  0  0  0  0  0  0  0  0
    7.7928   -0.1311    0.0000 C   0  0  0  0  0  0  0  0  0  0  0  0
    8.6402   -0.6203    0.0000 O   0  0  0  0  0  0  0  0  0  0  0  0
    6.9454   -0.6203    0.0000 C   0  0  0  0  0  0  0  0  0  0  0  0
    6.9454   -1.5988    0.0000 N   0  0  0  0  0  0  0  0  0  0  0  0
    6.0980   -2.0881    0.0000 C   0  0  0  0  0  0  0  0  0  0  0  0
    6.0980   -3.0666    0.0000 C   0  0  0  0  0  0  0  0  0  0  0  0
    5.2506   -3.5558    0.0000 C   0  0  0  0  0  0  0  0  0  0  0  0
    5.2506   -4.5343    0.0000 C   0  0  0  0  0  0  0  0  0  0  0  0
    4.4032   -3.0666    0.0000 C   0  0  0  0  0  0  0  0  0  0  0  0
    3.5558   -3.5558    0.0000 C   0  0  0  0  0  0  0  0  0  0  0  0
    4.4032   -2.0881    0.0000 C   0  0  0  0  0  0  0  0  0  0  0  0
    5.2506   -1.5988    0.0000 C   0  0  0  0  0  0  0  0  0  0  0  0
    5.2506   -0.6203    0.0000 N   0  0  0  0  0  0  0  0  0  0  0  0
    6.0980   -0.1311    0.0000 C   0  0  0  0  0  0  0  0  0  0  0  0
    4.4032   -0.1311    0.0000 C   0  0  0  0  0  0  0  0  0  0  0  0
    4.4032    0.8474    0.0000 C   0  0  2  0  0  0  0  0  0  0  0  0
    5.3817    0.8474    0.0000 O   0  0  0  0  0  0  0  0  0  0  0  0
    2.4462    0.8474    0.0000 C   0  0  2  0  0  0  0  0  0  0  0  0
    2.4462   -0.1311    0.0000 O   0  0  0  0  0  0  0  0  0  0  0  0
    2.4462    1.8259    0.0000 C   0  0  2  0  0  0  0  0  0  0  0  0
    3.4247    1.8259    0.0000 O   0  0  0  0  0  0  0  0  0  0  0  0
    1.4677    1.8259    0.0000 C   0  0  0  0  0  0  0  0  0  0  0  0
    0.9785    0.9785    0.0000 O   0  0  0  0  0  0  0  0  0  0  0  0
    0.0000    0.9785    0.0000 P   0  0  1  0  0  0  0  0  0  0  0  0
    0.0000    1.9570    0.0000 O   0  0  0  0  0  0  0  0  0  0  0  0
   -0.9785    0.9785    0.0000 O   0  0  0  0  0  0  0  0  0  0  0  0
    0.0000   -0.0000    0.0000 O   0  0  0  0  0  0  0  0  0  0  0  0
    0.8474   -2.4462    0.0000 H   0  0  0  0  0  0  0  0  0  0  0  0
   -1.4677   -2.8044    0.0000 H   0  0  0  0  0  0  0  0  0  0  0  0
   -0.6203   -2.3151    0.0000 H   0  0  0  0  0  0  0  0  0  0  0  0
   -3.6194   -2.7848    0.0000 H   0  0  0  0  0  0  0  0  0  0  0  0
   -2.7387   -0.0388    0.0000 H   0  0  0  0  0  0  0  0  0  0  0  0
   -1.7616   -0.0900    0.0000 H   0  0  0  0  0  0  0  0  0  0  0  0
   -4.7593    0.3452    0.0000 H   0  0  0  0  0  0  0  0  0  0  0  0
   -2.8264    0.6514    0.0000 H   0  0  0  0  0  0  0  0  0  0  0  0
   -5.7489   -1.4578    0.0000 H   0  0  0  0  0  0  0  0  0  0  0  0
   -6.8917   -1.6581    0.0000 H   0  0  0  0  0  0  0  0  0  0  0  0
   -7.6778    3.1200    0.0000 H   0  0  0  0  0  0  0  0  0  0  0  0
   -8.2851    1.5378    0.0000 H   0  0  0  0  0  0  0  0  0  0  0  0
   -4.1768    2.6838    0.0000 H   0  0  0  0  0  0  0  0  0  0  0  0
    8.6402    1.3366    0.0000 H   0  0  0  0  0  0  0  0  0  0  0  0
    6.9454   -3.5558    0.0000 H   0  0  0  0  0  0  0  0  0  0  0  0
    5.7399   -5.3817    0.0000 H   0  0  0  0  0  0  0  0  0  0  0  0
    6.2291   -4.5343    0.0000 H   0  0  0  0  0  0  0  0  0  0  0  0
    4.4032   -5.0236    0.0000 H   0  0  0  0  0  0  0  0  0  0  0  0
    3.0666   -4.4032    0.0000 H   0  0  0  0  0  0  0  0  0  0  0  0
    4.0451   -4.4032    0.0000 H   0  0  0  0  0  0  0  0  0  0  0  0
    2.7084   -3.0666    0.0000 H   0  0  0  0  0  0  0  0  0  0  0  0
    3.5558   -1.5988    0.0000 H   0  0  0  0  0  0  0  0  0  0  0  0
    3.9140   -0.9785    0.0000 H   0  0  0  0  0  0  0  0  0  0  0  0
    3.4247   -0.1311    0.0000 H   0  0  0  0  0  0  0  0  0  0  0  0
    4.4032    1.8259    0.0000 H   0  0  0  0  0  0  0  0  0  0  0  0
    5.8710    1.6948    0.0000 H   0  0  0  0  0  0  0  0  0  0  0  0
    1.4677    0.8474    0.0000 H   0  0  0  0  0  0  0  0  0  0  0  0
    3.2936   -0.6203    0.0000 H   0  0  0  0  0  0  0  0  0  0  0  0
    2.4462    2.8044    0.0000 H   0  0  0  0  0  0  0  0  0  0  0  0
    3.9140    2.6733    0.0000 H   0  0  0  0  0  0  0  0  0  0  0  0
    1.4677    2.8044    0.0000 H   0  0  0  0  0  0  0  0  0  0  0  0
    0.6203    2.3151    0.0000 H   0  0  0  0  0  0  0  0  0  0  0  0
   -1.4677    1.8259    0.0000 H   0  0  0  0  0  0  0  0  0  0  0  0
  1  2  2  1  0  0  0
  1  3  1  0  0  0  0
  1  4  1  0  0  0  0
  1 53  1  0  0  0  0
  3 54  1  0  0  0  0
  4  5  1  0  0  0  0
  5  6  1  0  0  0  0
  5 55  1  0  0  0  0
  5 56  1  0  0  0  0
  6  7  1  0  0  0  0
  6  8  1  6  0  0  0
  6 57  1  0  0  0  0
  7 12  1  0  0  0  0
  8  9  1  0  0  0  0
  8 10  1  6  0  0  0
  8 58  1  0  0  0  0
  9 59  1  0  0  0  0
 10 11  1  0  0  0  0
 10 12  1  6  0  0  0
 10 60  1  0  0  0  0
 11 61  1  0  0  0  0
 12 13  1  0  0  0  0
 12 62  1  6  0  0  0
 13 14  1  0  0  0  0
 13 22  1  0  0  0  0
 14 15  2  0  0  0  0
 14 63  1  0  0  0  0
 15 16  1  0  0  0  0
 16 17  1  0  0  0  0
 16 22  2  0  0  0  0
 17 18  1  0  0  0  0
 17 19  2  0  0  0  0
 18 64  1  0  0  0  0
 18 65  1  0  0  0  0
 19 20  1  0  0  0  0
 20 21  2  0  0  0  0
 20 66  1  0  0  0  0
 21 22  1  0  0  0  0
 23 24  1  0  0  0  0
 23 40  2  0  0  0  0
 24 25  2  0  0  0  0
 24 26  1  0  0  0  0
 26 27  1  0  0  0  0
 26 67  1  0  0  0  0
 27 28  2  0  0  0  0
 27 29  1  0  0  0  0
 29 30  2  0  0  0  0
 29 40  1  0  0  0  0
 30 31  1  0  0  0  0
 31 32  2  0  0  0  0
 31 38  1  0  0  0  0
 32 33  1  0  0  0  0
 32 68  1  0  0  0  0
 33 34  1  0  0  0  0
 33 35  2  0  0  0  0
 34 69  1  0  0  0  0
 34 70  1  0  0  0  0
 34 71  1  0  0  0  0
 35 36  1  0  0  0  0
 35 37  1  0  0  0  0
 36 72  1  0  0  0  0
 36 73  1  0  0  0  0
 36 74  1  0  0  0  0
 37 38  2  0  0  0  0
 37 75  1  0  0  0  0
 38 39  1  0  0  0  0
 39 40  1  0  0  0  0
 39 41  1  0  0  0  0
 41 42  1  0  0  0  0
 41 76  1  0  0  0  0
 41 77  1  0  0  0  0
 42 43  1  0  0  0  0
 42 44  1  0  0  0  0
 42 78  1  6  0  0  0
 43 79  1  0  0  0  0
 44 45  1  0  0  0  0
 44 46  1  0  0  0  0
 44 80  1  1  0  0  0
 45 81  1  0  0  0  0
 46 47  1  0  0  0  0
 46 48  1  0  0  0  0
 46 82  1  6  0  0  0
 47 83  1  0  0  0  0
 48 49  1  0  0  0  0
 48 84  1  0  0  0  0
 48 85  1  0  0  0  0
 49 50  1  0  0  0  0
 50 51  2  1  0  0  0
 50 52  1  0  0  0  0
 50 53  1  0  0  0  0
 52 86  1  0  0  0  0
M  END
