FAD
  Mrv15b2309162620542D          

 53 58  0  0  0  0            999 V2000
   -0.2255   -1.8855    0.0000 P   0  0  1  0  0  0  0  0  0  0  0  0
    0.1870   -2.6000    0.0000 O   0  0  0  0  0  0  0  0  0  0  0  0
   -0.6380   -1.1710    0.0000 O   0  0  0  0  0  0  0  0  0  0  0  0
   -0.9400   -2.2980    0.0000 O   0  0  0  0  0  0  0  0  0  0  0  0
   -0.9400   -3.1230    0.0000 C   0  0  0  0  0  0  0  0  0  0  0  0
   -1.6545   -3.5355    0.0000 C   0  0  1  0  0  0  0  0  0  0  0  0
   -1.7407   -4.3560    0.0000 O   0  0  0  0  0  0  0  0  0  0  0  0
   -2.4082   -3.1999    0.0000 C   0  0  1  0  0  0  0  0  0  0  0  0
   -2.5797   -2.3930    0.0000 O   0  0  0  0  0  0  0  0  0  0  0  0
   -2.9602   -3.8130    0.0000 C   0  0  1  0  0  0  0  0  0  0  0  0
   -3.7807   -3.7268    0.0000 O   0  0  0  0  0  0  0  0  0  0  0  0
   -2.5477   -4.5275    0.0000 C   0  0  2  0  0  0  0  0  0  0  0  0
   -2.8832   -5.2812    0.0000 N   0  0  0  0  0  0  0  0  0  0  0  0
   -2.4707   -5.9957    0.0000 C   0  0  0  0  0  0  0  0  0  0  0  0
   -3.0228   -6.6087    0.0000 N   0  0  0  0  0  0  0  0  0  0  0  0
   -3.7765   -6.2732    0.0000 C   0  0  0  0  0  0  0  0  0  0  0  0
   -4.5301   -6.6087    0.0000 C   0  0  0  0  0  0  0  0  0  0  0  0
   -4.6164   -7.4292    0.0000 N   0  0  0  0  0  0  0  0  0  0  0  0
   -5.1976   -6.1238    0.0000 N   0  0  0  0  0  0  0  0  0  0  0  0
   -5.1113   -5.3033    0.0000 C   0  0  0  0  0  0  0  0  0  0  0  0
   -4.3577   -4.9678    0.0000 N   0  0  0  0  0  0  0  0  0  0  0  0
   -3.6902   -5.4527    0.0000 C   0  0  0  0  0  0  0  0  0  0  0  0
    1.2034    3.8895    0.0000 N   0  0  0  0  0  0  0  0  0  0  0  0
    0.4889    4.3020    0.0000 C   0  0  0  0  0  0  0  0  0  0  0  0
   -0.2255    3.8895    0.0000 O   0  0  0  0  0  0  0  0  0  0  0  0
    0.4889    5.1270    0.0000 N   0  0  0  0  0  0  0  0  0  0  0  0
    1.2034    5.5395    0.0000 C   0  0  0  0  0  0  0  0  0  0  0  0
    1.2034    6.3645    0.0000 O   0  0  0  0  0  0  0  0  0  0  0  0
    1.9179    5.1270    0.0000 C   0  0  0  0  0  0  0  0  0  0  0  0
    2.6323    5.5395    0.0000 N   0  0  0  0  0  0  0  0  0  0  0  0
    3.3468    5.1270    0.0000 C   0  0  0  0  0  0  0  0  0  0  0  0
    4.0613    5.5395    0.0000 C   0  0  0  0  0  0  0  0  0  0  0  0
    4.7758    5.1270    0.0000 C   0  0  0  0  0  0  0  0  0  0  0  0
    5.4902    5.5395    0.0000 C   0  0  0  0  0  0  0  0  0  0  0  0
    4.7758    4.3020    0.0000 C   0  0  0  0  0  0  0  0  0  0  0  0
    5.4902    3.8895    0.0000 C   0  0  0  0  0  0  0  0  0  0  0  0
    4.0613    3.8895    0.0000 C   0  0  0  0  0  0  0  0  0  0  0  0
    3.3468    4.3020    0.0000 C   0  0  0  0  0  0  0  0  0  0  0  0
    2.6323    3.8895    0.0000 N   0  0  0  0  0  0  0  0  0  0  0  0
    1.9179    4.3020    0.0000 C   0  0  0  0  0  0  0  0  0  0  0  0
    2.6323    3.0645    0.0000 C   0  0  0  0  0  0  0  0  0  0  0  0
    1.9179    2.6520    0.0000 C   0  0  2  0  0  0  0  0  0  0  0  0
    1.2034    3.0645    0.0000 O   0  0  0  0  0  0  0  0  0  0  0  0
    1.9179    1.8270    0.0000 C   0  0  2  0  0  0  0  0  0  0  0  0
    2.6323    1.4145    0.0000 O   0  0  0  0  0  0  0  0  0  0  0  0
    1.2034    1.4145    0.0000 C   0  0  2  0  0  0  0  0  0  0  0  0
    0.4889    1.8270    0.0000 O   0  0  0  0  0  0  0  0  0  0  0  0
    1.2034    0.5895    0.0000 C   0  0  0  0  0  0  0  0  0  0  0  0
    0.4889    0.1770    0.0000 O   0  0  0  0  0  0  0  0  0  0  0  0
    0.4889   -0.6480    0.0000 P   0  0  1  0  0  0  0  0  0  0  0  0
    1.3139   -0.6480    0.0000 O   0  0  0  0  0  0  0  0  0  0  0  0
   -0.3361   -0.6480    0.0000 O   0  0  0  0  0  0  0  0  0  0  0  0
    0.4889   -1.4730    0.0000 O   0  0  0  0  0  0  0  0  0  0  0  0
  1  2  2  0  0  0  0
  1  3  1  6  0  0  0
  1  4  1  1  0  0  0
  1 53  1  0  0  0  0
  4  5  1  0  0  0  0
  6  5  1  1  0  0  0
  6  7  1  0  0  0  0
  6  8  1  0  0  0  0
  7 12  1  0  0  0  0
  8  9  1  6  0  0  0
  8 10  1  0  0  0  0
 10 11  1  6  0  0  0
 10 12  1  0  0  0  0
 12 13  1  1  0  0  0
 13 14  4  0  0  0  0
 13 22  4  0  0  0  0
 14 15  4  0  0  0  0
 15 16  4  0  0  0  0
 16 17  4  0  0  0  0
 16 22  4  0  0  0  0
 17 18  1  0  0  0  0
 17 19  4  0  0  0  0
 19 20  4  0  0  0  0
 20 21  4  0  0  0  0
 21 22  4  0  0  0  0
 23 24  4  0  0  0  0
 23 40  4  0  0  0  0
 24 25  2  0  0  0  0
 24 26  4  0  0  0  0
 26 27  4  0  0  0  0
 27 28  2  0  0  0  0
 27 29  4  0  0  0  0
 29 30  4  0  0  0  0
 29 40  4  0  0  0  0
 30 31  4  0  0  0  0
 31 32  4  0  0  0  0
 31 38  4  0  0  0  0
 32 33  4  0  0  0  0
 33 34  1  0  0  0  0
 33 35  4  0  0  0  0
 35 36  1  0  0  0  0
 35 37  4  0  0  0  0
 37 38  4  0  0  0  0
 38 39  4  0  0  0  0
 39 40  4  0  0  0  0
 39 41  1  0  0  0  0
 41 42  1  0  0  0  0
 42 43  1  1  0  0  0
 42 44  1  0  0  0  0
 44 45  1  6  0  0  0
 44 46  1  0  0  0  0
 46 47  1  1  0  0  0
 46 48  1  0  0  0  0
 48 49  1  0  0  0  0
 50 49  1  6  0  0  0
 50 51  2  0  0  0  0
 50 52  1  1  0  0  0
 50 53  1  0  0  0  0
M  STY  1   1 DAT
M  SAL   1  1  26
M  SDT   1 MRV_IMPLICIT_H                                        
M  SDD   1     0.0000    0.0000    DR    ALL  0       0  
M  SED   1 IMPL_H1
M  END
