@<TRIPOS>MOLECULE
best_pose.pdb
 32 33 0 0 0
SMALL
GASTEIGER

@<TRIPOS>ATOM
      1  C         19.0010   -5.9590    7.2880 C.2     1  UNL1        0.0488
      2  C         19.1490   -7.0920    6.5490 C.2     1  UNL1        0.1714
      3  O         18.6360   -8.2700    6.9140 O.2     1  UNL1       -0.5029
      4  C         19.9070   -7.1420    5.2660 C.2     1  UNL1        0.2282
      5  O         19.9950   -8.2270    4.7010 O.2     1  UNL1       -0.2834
      6  C         20.4950   -5.8890    4.7570 C.ar    1  UNL1        0.0362
      7  C         21.2080   -5.8820    3.5520 C.ar    1  UNL1       -0.0501
      8  C         21.7600   -4.6900    3.0820 C.ar    1  UNL1       -0.0610
      9  C         21.6010   -3.5090    3.8160 C.ar    1  UNL1       -0.0610
     10  C         20.8910   -3.5150    5.0200 C.ar    1  UNL1       -0.0502
     11  C         20.3340   -4.7030    5.4970 C.ar    1  UNL1        0.0330
     12  C         19.5730   -4.6910    6.7940 C.2     1  UNL1        0.1938
     13  O         19.4510   -3.6480    7.4210 O.2     1  UNL1       -0.2868
     14  C         18.1900   -5.9370    8.5590 C.3     1  UNL1       -0.0020
     15  C         20.1870   -5.3240   11.8870 C.3     1  UNL1       -0.0440
     16  C         19.2380   -5.0850   10.7380 C.2     1  UNL1       -0.0793
     17  C         18.5190   -3.7620   10.7760 C.3     1  UNL1       -0.0440
     18  C         19.0880   -6.0100    9.7740 C.2     1  UNL1       -0.0807
     19 H          18.1421   -8.3404    7.7072 H       1  UNL1        0.2923
     20 H          21.3247   -6.7548    3.0138 H       1  UNL1        0.0625
     21 H          22.2852   -4.6791    2.1937 H       1  UNL1        0.0618
     22 H          22.0104   -2.6286    3.4662 H       1  UNL1        0.0618
     23 H          20.7785   -2.6407    5.5567 H       1  UNL1        0.0625
     24 H          17.5246   -6.7749    8.5644 H       1  UNL1        0.0358
     25 H          17.6382   -5.0210    8.5965 H       1  UNL1        0.0358
     26 H          20.6483   -6.2829   11.7750 H       1  UNL1        0.0274
     27 H          19.6452   -5.2944   12.8092 H       1  UNL1        0.0274
     28 H          20.9403   -4.5641   11.8914 H       1  UNL1        0.0274
     29 H          18.8190   -3.2179   11.6471 H       1  UNL1        0.0274
     30 H          17.4629   -3.9308   10.8070 H       1  UNL1        0.0274
     31 H          18.7644   -3.1974    9.9008 H       1  UNL1        0.0274
     32 H          19.6506   -6.8693    9.8746 H       1  UNL1        0.0575
@<TRIPOS>BOND
     1     1     2    2
     2     1    12    1
     3     1    14    1
     4     2     4    1
     5     2     3    1
     6     4     5    2
     7     4     6    1
     8     6     7   ar
     9     6    11   ar
    10     7     8   ar
    11     8     9   ar
    12     9    10   ar
    13    10    11   ar
    14    11    12    1
    15    12    13    2
    16    14    18    1
    17    15    16    1
    18    16    18    2
    19    16    17    1
    20     3    19    1
    21     7    20    1
    22     8    21    1
    23     9    22    1
    24    10    23    1
    25    14    24    1
    26    14    25    1
    27    15    26    1
    28    15    27    1
    29    15    28    1
    30    17    29    1
    31    17    30    1
    32    17    31    1
    33    18    32    1
